6      
1.897000000000000      1.897000000000000      4.825000000000000 1.897000000000000     -1.897000000000000      4.825000000000000 1.897000000000000      1.897000000000000     -4.825000000000000    
Ti 0.008160703973609      3.785807359098570     -0.000073353679465
Ti 0.006984105470330      1.890070616261428      2.412545534181340
O  0.008889673160201     -0.007991044946498      2.000708404410337
O  0.008958883057638      1.888205054287533      0.411792898613389
O  1.904975593517654      1.888129150589224      2.824368321808868
O  0.008756446072142      1.888053459361335      4.413157621438719
